6
-7.8593799982621448e+01 frame 6   xyz file generated by TeraChem
     C    0.0339200018   -0.0000000056 -1.2144392040
     C    0.0339200009   -0.0000000041  0.1156792241
     H    0.9453132270    0.1480121158 -1.7873473679
     H   -0.8774732279   -0.1480121104 -1.7873473609
     H    0.9453132246    0.1480121135  0.6885873569
     H   -0.8774732265   -0.1480121092  0.6885873518
